PHYSICAL_PROBLEM= NAVIER_STOKES
KIND_TURB_MODEL= NONE
MATH_PROBLEM= DIRECT
RESTART_SOL= NO
MACH_NUMBER= 0.116
AoA= -16.0
FREESTREAM_TEMPERATURE= 300
REYNOLDS_NUMBER= 281551.0
REYNOLDS_LENGTH= 1.0
GAMMA_VALUE= 1.4
GAS_CONSTANT= 287.87
REF_ORIGIN_MOMENT_X= 0.25
REF_ORIGIN_MOMENT_Y= 0.00
REF_ORIGIN_MOMENT_Z= 0.00
REF_LENGTH_MOMENT= 1.0
REF_AREA= 1.0
REF_DIMENSIONALIZATION= DIMENSIONAL
MARKER_EULER= ( airfoil )
MARKER_FAR= ( farfield )
MARKER_PLOTTING= ( airfoil )
MARKER_MONITORING= ( airfoil )
MARKER_DESIGNING= ( airfoil )
NUM_METHOD_GRAD= WEIGHTED_LEAST_SQUARES
OBJECTIVE_FUNCTION= DRAG
CFL_NUMBER= 4.0
EXT_ITER= 2000
LINEAR_SOLVER= FGMRES
LINEAR_SOLVER_PREC= LU_SGS
LINEAR_SOLVER_ERROR= 1E-6
LINEAR_SOLVER_ITER= 10
MGLEVEL= 0
MGCYCLE= W_CYCLE
MG_PRE_SMOOTH= ( 1, 2, 3, 3 )
MG_POST_SMOOTH= ( 0, 0, 0, 0 )
MG_CORRECTION_SMOOTH= ( 0, 0, 0, 0 )
MG_DAMP_RESTRICTION= 1.0
MG_DAMP_PROLONGATION= 1.0
CONV_NUM_METHOD_FLOW= JST
SPATIAL_ORDER_FLOW= 2ND_ORDER_LIMITER
SLOPE_LIMITER_FLOW= VENKATAKRISHNAN
AD_COEFF_FLOW= ( 0.15, 0.5, 0.02 )
TIME_DISCRE_FLOW= EULER_IMPLICIT
CONV_NUM_METHOD_ADJFLOW= JST
SPATIAL_ORDER_ADJFLOW= 2ND_ORDER
SLOPE_LIMITER_ADJFLOW= VENKATAKRISHNAN
AD_COEFF_ADJFLOW= ( 0.15, 0.5, 0.02 )
CFL_REDUCTION_ADJFLOW= 0.5
TIME_DISCRE_ADJFLOW= EULER_IMPLICIT
DV_KIND= HICKS_HENNE, HICKS_HENNE, HICKS_HENNE, HICKS_HENNE, HICKS_HENNE, HICKS_HENNE, HICKS_HENNE, HICKS_HENNE, HICKS_HENNE, HICKS_HENNE, HICKS_HENNE, HICKS_HENNE, HICKS_HENNE, HICKS_HENNE, HICKS_HENNE, HICKS_HENNE, HICKS_HENNE, HICKS_HENNE, HICKS_HENNE, HICKS_HENNE, HICKS_HENNE, HICKS_HENNE, HICKS_HENNE, HICKS_HENNE, HICKS_HENNE, HICKS_HENNE, HICKS_HENNE, HICKS_HENNE, HICKS_HENNE, HICKS_HENNE, HICKS_HENNE, HICKS_HENNE, HICKS_HENNE, HICKS_HENNE, HICKS_HENNE, HICKS_HENNE, HICKS_HENNE, HICKS_HENNE
DV_MARKER= ( airfoil )
DV_PARAM= ( 0.0, 0.05) ; ( 0.0, 0.1) ; ( 0.0, 0.15) ; ( 0.0, 0.2) ; ( 0.0, 0.25) ; ( 0.0, 0.3) ; ( 0.0, 0.35) ; ( 0.0, 0.4) ; ( 0.0, 0.45) ; ( 0.0, 0.5) ; ( 0.0, 0.55) ; ( 0.0, 0.6) ; ( 0.0, 0.65) ; ( 0.0, 0.7) ; ( 0.0, 0.75) ; ( 0.0, 0.8) ; ( 0.0, 0.85) ; ( 0.0, 0.9) ; ( 0.0, 0.95) ; ( 1.0, 0.05) ; ( 1.0, 0.1) ; ( 1.0, 0.15) ; ( 1.0, 0.2) ; ( 1.0, 0.25) ; ( 1.0, 0.3) ; ( 1.0, 0.35) ; ( 1.0, 0.4) ; ( 1.0, 0.45) ; ( 1.0, 0.5) ; ( 1.0, 0.55) ; ( 1.0, 0.6) ; ( 1.0, 0.65) ; ( 1.0, 0.7) ; ( 1.0, 0.75) ; ( 1.0, 0.8) ; ( 1.0, 0.85) ; ( 1.0, 0.9) ; ( 1.0, 0.95) 
DV_VALUE= 0.0103251189172, 0.00926483178129, 0.00780891266126, 0.00634184243139, 0.00497859359565, 0.00376071057729, 0.00270054060827, 0.0017963321441, 0.00103894214243, 0.000415106288051, -9.10536347885e-05, -0.000497553804571, -0.000824455173067, -0.00109250252117, -0.00131659558174, -0.00148539344852, -0.00151769074938, -0.00126997677559, -0.00113768574315, 0.00181786527645, 0.00140398491157, 0.00110015964898, 0.000907189043628, 0.000791493060328, 0.000724885553963, 0.000689327896336, 0.000675133179155, 0.000677991205613, 0.000696479759751, 0.000730517196143, 0.00078104967218, 0.000850887156417, 0.000946695391306, 0.00108214925946, 0.00128071102162, 0.00156921114903, 0.00193678335603, 0.00240061580442
MOTION_FILENAME= mesh_motion.dat
DEFORM_LINEAR_ITER= 500
DEFORM_NONLINEAR_ITER= 1
DEFORM_CONSOLE_OUTPUT= YES
DEFORM_TOL_FACTOR= 0.001
DEFORM_STIFFNESS_TYPE= INVERSE_VOLUME
VISUALIZE_DEFORMATION= NO
CONV_CRITERIA= RESIDUAL
RESIDUAL_REDUCTION= 6
RESIDUAL_MINVAL= -8
STARTCONV_ITER= 10
CAUCHY_ELEMS= 100
CAUCHY_EPS= 1E-6
CAUCHY_FUNC_FLOW= DRAG
MESH_FILENAME= Benzing_deform.su2
MESH_FORMAT= SU2
MESH_OUT_FILENAME= mesh_out.su2
SOLUTION_FLOW_FILENAME= solution_flow.dat
SOLUTION_ADJ_FILENAME= solution_adj.dat
OUTPUT_FORMAT= TECPLOT
CONV_FILENAME= history_direct
RESTART_FLOW_FILENAME= restart_flow.dat
RESTART_ADJ_FILENAME= restart_adj.dat
VOLUME_FLOW_FILENAME= flow
VOLUME_ADJ_FILENAME= adjoint
GRAD_OBJFUNC_FILENAME= of_grad.dat
SURFACE_FLOW_FILENAME= surface_flow
SURFACE_ADJ_FILENAME= surface_adjoint
WRT_SOL_FREQ= 250.0
WRT_CON_FREQ= 1
OPT_OBJECTIVE= DRAG * 0.001
OPT_CONSTRAINT= ( LIFT < -1.0 ) * 0.001
DEFINITION_DV= ( 1 , 1.0 | airfoil  | 0.0 , 0.05  ); ( 1 , 1.0 | airfoil  | 0.0 , 0.1  ); ( 1 , 1.0 | airfoil  | 0.0 , 0.15  ); ( 1 , 1.0 | airfoil  | 0.0 , 0.2  ); ( 1 , 1.0 | airfoil  | 0.0 , 0.25  ); ( 1 , 1.0 | airfoil  | 0.0 , 0.3  ); ( 1 , 1.0 | airfoil  | 0.0 , 0.35  ); ( 1 , 1.0 | airfoil  | 0.0 , 0.4  ); ( 1 , 1.0 | airfoil  | 0.0 , 0.45  ); ( 1 , 1.0 | airfoil  | 0.0 , 0.5  ); ( 1 , 1.0 | airfoil  | 0.0 , 0.55  ); ( 1 , 1.0 | airfoil  | 0.0 , 0.6  ); ( 1 , 1.0 | airfoil  | 0.0 , 0.65  ); ( 1 , 1.0 | airfoil  | 0.0 , 0.7  ); ( 1 , 1.0 | airfoil  | 0.0 , 0.75  ); ( 1 , 1.0 | airfoil  | 0.0 , 0.8  ); ( 1 , 1.0 | airfoil  | 0.0 , 0.85  ); ( 1 , 1.0 | airfoil  | 0.0 , 0.9  ); ( 1 , 1.0 | airfoil  | 0.0 , 0.95  ); ( 1 , 1.0 | airfoil  | 1.0 , 0.05  ); ( 1 , 1.0 | airfoil  | 1.0 , 0.1  ); ( 1 , 1.0 | airfoil  | 1.0 , 0.15  ); ( 1 , 1.0 | airfoil  | 1.0 , 0.2  ); ( 1 , 1.0 | airfoil  | 1.0 , 0.25  ); ( 1 , 1.0 | airfoil  | 1.0 , 0.3  ); ( 1 , 1.0 | airfoil  | 1.0 , 0.35  ); ( 1 , 1.0 | airfoil  | 1.0 , 0.4  ); ( 1 , 1.0 | airfoil  | 1.0 , 0.45  ); ( 1 , 1.0 | airfoil  | 1.0 , 0.5  ); ( 1 , 1.0 | airfoil  | 1.0 , 0.55  ); ( 1 , 1.0 | airfoil  | 1.0 , 0.6  ); ( 1 , 1.0 | airfoil  | 1.0 , 0.65  ); ( 1 , 1.0 | airfoil  | 1.0 , 0.7  ); ( 1 , 1.0 | airfoil  | 1.0 , 0.75  ); ( 1 , 1.0 | airfoil  | 1.0 , 0.8  ); ( 1 , 1.0 | airfoil  | 1.0 , 0.85  ); ( 1 , 1.0 | airfoil  | 1.0 , 0.9  ); ( 1 , 1.0 | airfoil  | 1.0 , 0.95  )
DV_VALUE_NEW= 0.0103251189172, 0.00926483178129, 0.00780891266126, 0.00634184243139, 0.00497859359565, 0.00376071057729, 0.00270054060827, 0.0017963321441, 0.00103894214243, 0.000415106288051, -9.10536347885e-05, -0.000497553804571, -0.000824455173067, -0.00109250252117, -0.00131659558174, -0.00148539344852, -0.00151769074938, -0.00126997677559, -0.00113768574315, 0.00181786527645, 0.00140398491157, 0.00110015964898, 0.000907189043628, 0.000791493060328, 0.000724885553963, 0.000689327896336, 0.000675133179155, 0.000677991205613, 0.000696479759751, 0.000730517196143, 0.00078104967218, 0.000850887156417, 0.000946695391306, 0.00108214925946, 0.00128071102162, 0.00156921114903, 0.00193678335603, 0.00240061580442
DV_VALUE_OLD= 0.0103251189172, 0.00926483178129, 0.00780891266126, 0.00634184243139, 0.00497859359565, 0.00376071057729, 0.00270054060827, 0.0017963321441, 0.00103894214243, 0.000415106288051, -9.10536347885e-05, -0.000497553804571, -0.000824455173067, -0.00109250252117, -0.00131659558174, -0.00148539344852, -0.00151769074938, -0.00126997677559, -0.00113768574315, 0.00181786527645, 0.00140398491157, 0.00110015964898, 0.000907189043628, 0.000791493060328, 0.000724885553963, 0.000689327896336, 0.000675133179155, 0.000677991205613, 0.000696479759751, 0.000730517196143, 0.00078104967218, 0.000850887156417, 0.000946695391306, 0.00108214925946, 0.00128071102162, 0.00156921114903, 0.00193678335603, 0.00240061580442
OPT_ITERATIONS= 100
OPT_ACCURACY= 1e-10
OPT_BOUND_UPPER= 10000000000.0
OPT_BOUND_LOWER= -10000000000.0
OPT_COMBINE_OBJECTIVE= NO
VALUE_OBJFUNC_FILENAME= of_eval.dat
NUMBER_PART= 8
CONSOLE= CONCISE
GRADIENT_METHOD= CONTINUOUS_ADJOINT
